Version 4
SHEET 1 2052 704
WIRE 128 0 0 0
WIRE 0 16 0 0
WIRE 480 16 352 16
WIRE 544 16 480 16
WIRE 688 16 608 16
WIRE 784 16 688 16
WIRE 1088 16 784 16
WIRE 1088 32 1088 16
WIRE 128 80 128 0
WIRE 352 80 352 16
WIRE 480 80 480 16
WIRE 688 80 688 16
WIRE 1104 112 1104 96
WIRE 1280 112 1104 112
WIRE 1408 112 1280 112
WIRE 1504 112 1408 112
WIRE 0 128 0 96
WIRE 784 128 784 16
WIRE 1504 160 1504 112
WIRE 1280 176 1280 112
WIRE 480 208 480 144
WIRE 544 208 480 208
WIRE 688 208 688 144
WIRE 688 208 608 208
WIRE 0 256 0 208
WIRE 128 256 128 160
WIRE 128 256 0 256
WIRE 352 256 352 160
WIRE 352 256 128 256
WIRE 688 256 688 208
WIRE 688 256 352 256
WIRE 128 288 128 256
WIRE 480 320 480 208
WIRE 784 320 784 192
WIRE 784 320 480 320
WIRE 1072 320 1072 96
WIRE 1072 320 784 320
WIRE 1280 320 1280 240
WIRE 1280 320 1072 320
WIRE 1504 320 1504 240
WIRE 1504 320 1280 320
WIRE 480 336 480 320
FLAG 480 336 0
FLAG 128 288 0
FLAG 1408 112 out
FLAG 688 16 in
SYMBOL voltage 0 112 R0
WINDOW 3 8 103 Left 1
WINDOW 123 0 0 Left 0
WINDOW 39 0 0 Left 0
SYMATTR Value SINE(0 {X} 50)
SYMATTR InstName V1
SYMBOL res -16 0 R0
SYMATTR InstName R1
SYMATTR Value 1m
SYMBOL ind2 112 176 M180
WINDOW 0 36 80 Left 2
WINDOW 3 31 8 Left 2
SYMATTR InstName L1
SYMATTR Value 672.2222µ
SYMBOL ind2 368 176 R180
WINDOW 0 36 80 Left 2
WINDOW 3 36 40 Left 2
SYMATTR InstName L2
SYMATTR Value 2µ
SYMBOL diode 496 144 R180
WINDOW 0 24 64 Left 2
WINDOW 3 24 0 Left 2
SYMATTR InstName D1
SYMATTR Value 1N4007
SYMBOL diode 544 32 R270
WINDOW 0 32 32 VTop 2
WINDOW 3 0 32 VBottom 2
SYMATTR InstName D2
SYMATTR Value 1N4007
SYMBOL diode 704 144 R180
WINDOW 0 24 64 Left 2
WINDOW 3 24 0 Left 2
SYMATTR InstName D3
SYMATTR Value 1N4007
SYMBOL diode 544 224 R270
WINDOW 0 32 32 VTop 2
WINDOW 3 0 32 VBottom 2
SYMATTR InstName D4
SYMATTR Value 1N4007
SYMBOL polcap 768 128 R0
SYMATTR InstName C1
SYMATTR Value 2.2e-2
SYMBOL AutoGenerated\\LM7805 1088 64 M90
WINDOW 0 30 -82 VBottom 2
WINDOW 3 -22 -97 VTop 2
SYMATTR InstName U1
SYMBOL cap 1264 176 R0
SYMATTR InstName C3
SYMATTR Value 1µ
SYMBOL load2 1504 160 R0
WINDOW 123 0 0 Left 0
WINDOW 39 0 0 Left 0
SYMATTR InstName I1
SYMATTR Value 1
TEXT 184 56 Left 2 !K L1 L2 1
TEXT 640 344 Left 1 !.MODEL 1N4007 D(IS=76.9p RS=42.0m BV=1.00k IBV=5.00u CJO=26.5p  M=0.333 N=1.45 TT=4.32u)
TEXT 0 336 Left 2 !.tran 0 7m 1u
TEXT 0 400 Left 2 !.step param X 254.558441227 367.695526217 7.071067811865
TEXT 936 400 Left 2 !;meas Vavg AVG V(out)
